input_files/CEPEL_DATA/BR2612PJ-CC-MIN.ANA
TIPO
P
TITU     1
ONS = SISTEMA INTERLIGADO = CONFIG DEZ/2026 = VERSÃO 31/03/2026 = BR2612PJ.ANA
CMNT     1
================================================================================
CMNT     2
 CICLO DO PAR ANO 2027 / 2031 - REVISÃO 0
CMNT     3
 CASO DE REFERÊNCIA BR2612PJ.ANA GERADO A PARTIR DA BASE DE DADOS DE OPERAÇÃO
CMNT     4
 BR2512B.ANA DE 31/03/2026, APLICANDO-SE OS ARQUIVOS DE ALTERAÇÃO
CMNT     5
 NNE2612PJ.ALT, SECO2612PJ.ALT E SUL2612PJ.ALT.
CMNT     6
================================================================================
CMNT     7
* Nathan Kelvi de Almeida Bueno   <nathan.bueno@ons.org.br>   Tel:48 32613928 *
CMNT     8
* NORTE, NORDESTE                                                             *
CMNT     9
* Rodolfo G. de Souza Leite      <rodolfo.leite@ons.org.br>   Tel:81 32178941 *
CMNT    10
*******************************************************************************
DBAR
(NB  CEMA     BN               VBAS DISJUN DA1  DA2 DDMMAAAADDMMAAAA IA SA  F
(----=-=-============          ---- ======-----=====--------======== ---=== -
  210    ITUMBI-MG500           500   31.5                           351
  320    EMBORC-MG500           500     38                           351
  321    EMBORC-MG138           138     40                           358
  325    JAGUAR-MG500           500     38                           351
  349    NEVES--MG500           500     38                           351
  350    NEVES--MG345           345     25                           352
  351    NEVES1-MG013          13.8                                  351
  352    NEVES2-MG013          13.8                                  351
  353    NEVES-BIO138           138     40                           354
  356  1 NEV-T1-MG000                                                351
  357  1 NEV-T2-MG000                                                351
  360    NPONTE-MG500           500   31.5                           351
  371    SGONC1-MG013          13.5                                  351
  377    SGONC1-MG138           138     40                           360
  378    SGONCA-MG500           500     50                           351
  379  1 SGONC1-MG000                                                351
  380    TMARIA-MG345           345     50                           352
  384    OPRET2-MG500           500     40                           351
  385    OPRETO-MG345           345     40                           352
  390    SGOTAR-MG500           500     50                           351
  391    SGOTA2-MG345           345     40                           352
  393  1 SGOTA4-MG000                                                351
  395    SGOTA3-MG013          13.8                                  351
  397    SGOTA4-MG013          13.8                                  351
 1490  2 BDES3-CER018          18.5                                  351
 1505  1 SGOTA3-MG000                                                351
 1507    SGONC2-MG013          13.5                                  351
 1513    RPARAN-MG138           138                                  358
 1517  1 SGONC2-MG000                                                351
 1553    PATROC-MG138           138   20.9                           358
 1562  1 SGONC3-MG000                                                351
 1577    CPARA2-MG138           138                                  358
 3008    PARAC4-MG500           500     40                           351
 3010    ESTREI-MG500           500     40                           351
 4019    SGOTAD-MG138           138                                  358
 4027    VESPA2-MG138           138     40                           354
 4028    VESPA2-MG500           500     50                           351
 4050    BDESP3-MG500           500     40                           351
 4075    ITABI5-MG500           500     50                           351
 7325    GALVRP-MG138           138                                  358
 7407    NPONTE-MG345           345     63                           352
 7425  2 D#LFO2-MG138           138                                  358
 7431    P.MIN2-MG138           138                                  358
 7536    SILVAN-GO500           500     50                           511
 7820    NPONT3-MG500           500                                  351
 9012    SGONC3-MG013          13.8 999999                           351
 9016    ITABTO-MG500           500     50                           351
 9017    ITABTO-MG345           345     40                           352
 9039  2 D#SSAL-MG138           138                                  358
 9048    IBIA2--MG138           138                                  358
 9049    SGOTA2-MG138           138     40                           358
 9098  2 SGO-DF-MG138           138                                  352
40722    LFORM2-MG138           138                                  358
40724    SSALIT-MG138           138                                  358
42051  1 ITABT2-MG000                                                351
42052    ITABT2-MG013          13.8                                  351
42053  1 ITABT3-MG000                                                351
42054    ITABT3-MG013          13.8                                  351
42076  1 SGOTA6-MG000                                                352
42077    SGOTA6-MG013          13.8 999999                           352
42078  1 EMBOR6-MG000                                                351
42079    EMBOR6-MG013          13.5                                  351
42080  1 EMBOR7-MG000                                                351
42081    EMBOR7-MG013          13.8   12.5                           351
42082  1 EMBO10-MG000                                                351
42083    EMBO10-MG013          13.8   12.5                           351
42116  1 OPRET1-MG000                                                351
42117    OPRET1-MG013          13.8     40                           351
42118  1 OPRET2-MG000                                                351
42119    OPRET2-MG013          13.8     40                           351
42147  1 VESPA2-MG000                                                351
42148    VESPA2-MG013          13.5                                  351
42149  1 VESPA3-MG000                                                351
42150    VESPA3-MG013          13.5                                  351
42172  1 NEV1T4-MG000                                                351
42173    NEV1T4-MG013          13.8      9                           351
42174  1 NEV-T5-MG000                                                351
42175    NEVES5-MG013          13.8      9                           351
42202  1 NPONT1-MG000                                                352
42203    NPONT1-MG013          13.8     25                           352
42204  1 NPONT2-MG000                                                352
42205    NPONT2-MG013          13.8     25                           352
46353    IBIA3--MG138           138                                  358
46400    PATRC3-MG138           138                                  358
46402    RPARA2-MG138           138                                  358
48461    CALTOS-MG138           138                                  358
99999
DCIR
(BF  CE  BT   NCT  R1    X1    R0    X0    CN    S1   S0       TB  TCIA DEF  KM CD RNDE  XNDE CP RNPA  XNPA SA  EQ NunNop DJ_BF CicDJ_BT Cic D2F  D2T  D3F  D3T DDMMAAAADDMMAAAA   MVA              TD     NOME EXTENSO     F UOT AGS AGT TIP S
(----=-=====  --=------======------======------=====-----     -----==---=== ====--======------==------======--- == ===--- ======---======---=====-----=====-----========-------- =======            == -------------------- - === --- === --- =
 4050    349   1L 0.122 1.814   177 6.669CMG-GT14920                 998     127                                                                                                    2442
 4050    349   2L 0.122 1.816 1.767 6.681CMG-GT14900                 998     127                                                                                                    2442
  320    390   1L    23   341   326  1278CMG-GT27480                 998                                                                                                            2442
  380    391   1L 0.548 5.282   485  1961CMG-GT 8637                 998     149                                                                                                    1123
 4050    378   1L 0.057 0.822 0.841 3.155CMG-GT 7026                 998    59.1                                                                                                    2442
    0    360   1G         661         196CMG-GT                      998                      YN
  325    360   1L    10   151   148   555CMG-GT11960                 998                                                                                                            2442
  320    360   2L 0.084 1.2411.29225.0378CMG-GT10120                 998      88                                                                                                    2533
  390    360   1L0.17392.64532.677810.763CMG-GT21690                 998     198                                                                                                    2533
  320    360   1L 0.084 1.241   122   457CMG-GT10120                 998    86.8                                                                                                    2442
  320   3008   1L 0.125 1.996 2.542  1104SMTE  29090                 998     188                                                                                                    2598
  349   4028   1L 0.023    34 0.334 1.274CMG-GT 2795                 998    23.9                                                                                                    2442
  325   4050   1L 0.214 3.214   299  1167CMG-GT26720                 998     228                                                                                                    2442
  390   4050   1L 0.088 1.269 1.291 4.862CMG-GT10870                 998    91.3                                                                                                    2442
  325   4050   2L 0.215 3.218   30011.669CMG-GT26800                 998     228                                                                                                    2442
  390   4050   2L0.08371.26021.33625.2096CMG-GT11290                 998      93                                                                                                    2533
  360   3010   1L 0.134 2.023 2.086 8.291NSIII 15830                 998     147                                                                                                    2533
 3010    325   1L 0.042 0.634 0.675 2.625       5507                 998    45.9                                                                                                    1992
 1577   1513   1L 4.89412.60812.278  4848                            998    48.8                                                                                                     125
  384   9016   1L 0.015 0.144 0.148    45LIN    1257                 998     4.6                                                                                                    2442
  378   9016   1L 0.118 1.677 1.456 5.992LIN   14460                 998     121                                                                                                    2442
  385   9017   1L 0.015 0.144 0.148    45LIN   2.454                 998     4.6                                                                                                     771
 4050    384   1L 0.183 2.378   239 7.886FCE   2407014440            998     180                                                                                                    2447
  320    210   1L    13 1.917   186   703LIN   15700                 998     135                                                                                                    1732
 9049   4019   1L 0.443 1.965 1.575 5.214                            998     8.4                                                                                                     182
 9049   1513   1L 1.759 7.746 6.308  2402                            998    31.3                                                                                                     182
  353  42174   5T         -20         -20TR5                         998        YN                                                                                                   750
  378    379   1T         491         491T1                          998        YN                                                                                                   300
  377    379   1T         -21         -21T1                          998        YN                                                                                                   300
  378   1517   2T         490         490T2                          998        YN                                                                                                   300
  377   1517   2T         -23         -23T2                          998        YN                                                                                                   300
  390   1505   3T         275         275T3                          998        YN                                                                                                   400
  391   1505   3T         -63         -63T3                          998        YN                                                                                                   400
  395   1505   3T         743         743T3                          998        D                                                                                                    133
  390    393   4T         242         242T4                          998        YN                                                                                                   400
  391    393   4T         -18         -18T4                          998        YN                                                                                                   400
  397    393   4T         738         738T4                          998        D                                                                                                    100
  384  42118   2T         274         274T2                          998        YN                                                                                                   400
  391  42076   6T0.02082.48840.02082.4867T6                          998        YN                                                                                                   300
 9016  42051   2T       2.258       2.258TR-1                        998        YN                                                                                                   560
 9016  42053   3T       2.308       2.308TR-2                        998        YN                                                                                                   560
  320  42082  10T         491         491T10                         998        YN                                                                                                   300
  378   1562   3T    17   495    17   495TR-3                        998        YN                                                                                                   300
  377   1562   3T         -36         -36TR-3                        998        YN                                                                                                   300
    0 D42175   2G        1600999999999999C2                          998
  320  42078   6T         577         577T6                          998        YN                                                                                                   300
  320  42080   7T         564         564T7                          998        YN                                                                                                   300
  371    379   1T         675         675T1                          998        D                                                                                                     50
 1507   1517   2T         674         674T2                          998        D                                                                                                     50
 9012   1562   3T         238         238TR-3                        998        D                                                                                                     50
    0    360  10H999999999999      73.5292x136                       998                      YN                     2  2                                                           -136
    0    390  10H999999999999       109892x91                        998                      YN                     2  2                                                            -91
    0    391  10H999999999999       -66672x150                       998                      YN                     2  2                                                            150
    0   4050  10H999999999999       109892x91                        998                      YN                     2  2                                                            -91
    0    378  10H999999999999        6135S4                          998                      YN                                                                                    -163
 9016   4028   1L 0.081 1.076   136   379      10820                 998      85                                                                                                    2447
  384    385   5T       2.224       2.224OPR-T5                      998        YN            YN                                                                                     400
  349  42172   4T         210         210                            998        YN                                                                                                   750
  353  42172   4T         -20         -20                            998        YN                                                                                                   750
 1490   4050   1T         592         592T1                          998        D             YN                                                                                    9999
 1490      0  10E999999999999        5000                            998        D                                                                                                   -200               -200/ 300 Mvar
  349  42174   5T         210         210   TR5                      998        YN                                                                                                   750
 4075   4028   1L 0.061 0.903 0.507 2.253       7425                 998    63.3                                                                                                    2442
  384  42116   1T 0.007 2.543 0.007 2.191T1                          998        YN                                                                                                   400
  385  42116   1T 0.028-0.259 0.028-0.219T1                          998        YN                                                                                                   400
42117  42116   1T 0.261 7.653 0.261 6.577T1                          998 30     D                                                                                                      5
    0    371  10H999999999999       20000                            998                      YN                                                                                     -50
    0   1507  10H999999999999       20000                            998                      YN                                                                                     -50
  321  42082  10T         -19         -19T10                         998        YN                                                                                                   300
42083  42082  10T         710         710T10                         998        D                                                                                                    300
  321  42078   6T        -114        -114T6                          998        YN                                                                                                   300
42079  42078   6T         805         805T6                          998        D                                                                                                    300
  321  42080   7T        -115        -115T7                          998        YN                                                                                                   300
42081  42080   7T         806         806T7                          998        D                                                                                                    300
 9017  42051   2T         -20         -20TR-1                        998        YN                                                                                                   560
42052  42051   2T      22.553      22.553TR-1                        998        D                                                                                                    560
 9017  42053   3T      -0.265      -0.265TR-2                        998        YN                                                                                                   560
42054  42053   3T      22.353      22.353TR-2                        998        D                                                                                                    560
42175  42174   5T         110999999999999TR5                         998                                                                                                               3               DELTA ABERTO
  385  42118   2T         -56         -56T2                          998        YN                                                                                                   400
42119  42118   2T         745         745T2                          998        D                                                                                                    999
 9098  42076   6T0.0105-0.1790.0105   -18T6                          998        YN                                                                                                   300
42077  42076   6T0.251912.5090.251912.509T6                          998 30     D                                                                                                    300
42173  42172   4T         110999999999999                            998                                                                                                               3               DELTA ABERTO
 4075    349   1L 0.083 1.251 0.713 3.176      10490                 998    89.4                                                                                                    2401
 7536    210   1L 0.206   311   32210.417      27390                 998     228                                                                                                    1905
 7536    320   1L 0.203 3.056 3.12210.192                            998     223                                                                                                    1905
  360  42202   1T 0.021 5.518 0.021 5.518                            998        YN                                                                                                   300
 7407  42202   1T 0.045-0.651 0.045-0.651                            998        YN                                                                                                   300
42203  42202   1T 1.02440.304 1.02440.304                            998 30     D                                                                                                      6
  360  42204   2T 0.021 5.518 0.021 5.518                            998        YN                                                                                                   300
 7407  42204   2T 0.045-0.651 0.045-0.651                            998        YN                                                                                                   300
42205  42204   2T 1.02440.304 1.02440.304                            998 30     D                                                                                                      6
    0    349  10H999999999999      55.556                            998                      YN                                                                                    -180
 1577   7425   1L 2.336 6.021 6.05422.781                            998    23.3                                                                                                     125
 7425  40722   1L 0.014     2     3 0.072                            998     0.1                                                                                                     125
 7425   7431   1L   305   783 8.08129.168                            998    30.4                                                                                                     125
 1513   9039   1L 3.75116.07413.77862.945                            998      64                                                                                                     180
 9039  40724   1L 0.058    2514.074  6430                            998     0.8                                                                                                     180
 9039   7325   1L 0.058    2514.074  6430                            998     0.8                                                                                                     180
    0   1577  10H999999999999      -60976                            998                      YN                                                                                    16.4
 9098   9049   7T 0.075 1.506 0.077 1.541                            998        YN            YN                                                                                     300
42148  42147   2T 0.345 7.119 0.345   608                            998 30     D                                                                                                    100
 4027  42147   2T 0.035-0.249 0.035-0.256                            998        YN                                                                                                   300
 4028  42147   2T 0.059 4.905 0.059 4.969                            998        YN                                                                                                   300
 3008   7820   1L 0.147 2.089 2.784 8.966      5667023390            998     268                                                                                                    2568
  210   7820   1L 0.177 2.653 2.585 8.518      2341015350            998                                                                                                            2533
 7820    360   1L 0.029 0.422 0.238 1.152       3675 2325            998                                                                                                            2533
 3008   7820   2L 0.146 2.063   276 8.875      5590022080            998     268                                                                                                    2568
 4027  42149   3T-0.032-0.568-0.032-0.551                            998        YN                                                                                                   300
 4028  42149   3T 0.129 5.575 0.129 5.589                            998        YN                                                                                                   300
42150  42149   3T 2.722 6.922 2.722 5.719                            998 30     D                                                                                                     30
 9048  46353   1L 0.759 1.701 1.791 6.515         40                 998                                                                                                             150
46353   1513   1L 4.49110.06610.59938.554        250                 998                                                                                                             150
    0   9016  10H999999999999       10000                            998                      YN                                                                                    -100
    0    390  20H999999999999        6135                            998                      YN                     2  2                                                           -163
    0   4050  20H999999999999      55.556                            998                      YN                     2  2                                                           -180
  350    357   2T      -0.625      -0.625                            998        YN                                                                                                   480
  349    357   2T       3.125       3.125                            998        YN                                                                                                   480
  352    357   2T       9.252       9.252                            998        D                                                                                                    160
 3010    325   2L 0.038    58 0.641 2.668       5866 3519            998      45                                                                                                    2546
  349    356   1T       3.125       3.125                            998        YN                                                                                                   480
  351    356   1T       9.252       9.252                            998        D                                                                                                    160
  350    356   1T      -0.625      -0.625                            998        YN                                                                                                   480
 4019  46402   1L 0.929   403 3.68312.249        110   70            998    16.3                                                                                                     180
 9049  48461   1L 2.38110.66410.22833.888        320  170            998    44.9                                                                                                     180
 1553  46400   1L   114 5.154   55820.046        150                 998      20                                                                                                     180
46400   9039   1L 0.771 3.279 2.92413.067         90                 998      12                                                                                                     180
 9048      0   1G58.285 1302910.52991.548EQUIV.                      998        YN                               1                                                                                     Equivalente shunt
 9017      0   1G.407444.5896.839393.7563EQUIV.                      998        YN                               1                                                                                     Equivalente shunt
 7820   9017   1T50.496 30387.242E6.137E6EQUIV.                      998        YN            YN                 1                                                                                     Equivalente serie
 7820      0   1G.111721.87321.32554.2574EQUIV.                      998        YN                               1                                                                                     Equivalente shunt
 7536   7820   1L15.313 1934451810.57193.EQUIV.                      998                                         1                                                                                     Equivalente serie
 7536      0   1G.127931.4725.499032.1984EQUIV.                      998        YN                               1                                                                                     Equivalente shunt
 7431      0   1G41.992 2802024.462 11754EQUIV.                      998        YN                               1                                                                                     Equivalente shunt
 7425   7431   2L999999999999 -7246-27017EQUIV.                      998                                         1                                                                                     Equivalente serie
 7425      0   1H99999999999945.607 34549EQUIV.                      998        YN                               1                                                                                     Equivalente shunt
 7407   9048   1T10.73740.93650.676 16168EQUIV.                      998        YN            YN                 1                                                                                     Equivalente serie
 7407      0   1G.3544913.6161.6238 9.795EQUIV.                      998        YN                               1                                                                                     Equivalente shunt
 4075   7536   1L2.653436.857208408212600EQUIV.                      998                                         1                                                                                     Equivalente serie
 4075   7820   1L55.065 45464.129E7.712E6EQUIV.                      998                                         1                                                                                     Equivalente serie
 4075   9017   1T11.91273.959315746377802EQUIV.                      998        YN            YN                 1                                                                                     Equivalente serie
 4075      0   1G.084091.4043.262051.5788EQUIV.                      998        YN                               1                                                                                     Equivalente shunt
 4027   4075   1T32.135 10150 13587 32785EQUIV.                      998        YN            YN                 1                                                                                     Equivalente serie
 4027   9017   1T 10841 17270430272408361EQUIV.                      998        YN            YN                 1                                                                                     Equivalente serie
 4027      0   1G  334786.8637.995823.962EQUIV.                      998        YN                               1                                                                                     Equivalente shunt
 3010   4027   1T 24823 6341723569.18342.EQUIV.                      998        YN            YN                 1                                                                                     Equivalente serie
 3010   4075   1L6.737263.084752533662877EQUIV.                      998                                         1                                                                                     Equivalente serie
 3010   7407   1T29.843 15238134770234066EQUIV.                      998        YN            YN                 1                                                                                     Equivalente serie
 3010   7536   1L 9.788 1171818217.18669.EQUIV.                      998                                         1                                                                                     Equivalente serie
 3010   7820   1L.8586810.499 52187 68962EQUIV.                      998                                         1                                                                                     Equivalente serie
 3010   9017   1T3.317329.257163554125694EQUIV.                      998        YN            YN                 1                                                                                     Equivalente serie
 3010   9048   1T 13402 29443264429572542EQUIV.                      998        YN            YN                 1                                                                                     Equivalente serie
 3010      0   1G.02049.53292.01465.29729EQUIV.                      998        YN                               1                                                                                     Equivalente shunt
 3008   3010   1L58.376 51465 .69E6.381E6EQUIV.                      998                                         1                                                                                     Equivalente serie
 3008   4075   1L.417386.309270.638 11521EQUIV.                      998                                         1                                                                                     Equivalente serie
 3008   7431   1T61.546 18278117683252721EQUIV.                      998        YN            YN                 1                                                                                     Equivalente serie
 3008   7536   1L 0.2123.892443.57184.951EQUIV.                      998                                         1                                                                                     Equivalente serie
 3008      0   1G.159711.7968.256441.3152EQUIV.                      998        YN                               1                                                                                     Equivalente shunt
 1553   3008   1T87.271 24336 77042201114EQUIV.                      998        YN            YN                 1                                                                                     Equivalente serie
 1553   3010   1T 22374 47832428615710410EQUIV.                      998        YN            YN                 1                                                                                     Equivalente serie
 1553   7407   1T  137849.64479.396 18230EQUIV.                      998        YN            YN                 1                                                                                     Equivalente serie
 1553   7425   1L999999999999 30593 61400EQUIV.                      998                                         1                                                                                     Equivalente serie
 1553   7431   1L11.098  274295.387 17354EQUIV.                      998                                         1                                                                                     Equivalente serie
 1553   9048   1L  3034  651987.146 27361EQUIV.                      998                                         1                                                                                     Equivalente serie
 1553      0   1G17.41963.0138.084238.684EQUIV.                      998        YN                               1                                                                                     Equivalente shunt
  385   3008   1T52.954 5937822160.24615.EQUIV.                      998        YN            YN                 1                                                                                     Equivalente serie
  385   3010   1T13.465 11519562001480712EQUIV.                      998        YN            YN                 1                                                                                     Equivalente serie
  385   4027   1T18.28761.948 14660 29569EQUIV.                      998        YN            YN                 1                                                                                     Equivalente serie
  385   4075   1T2.061416.69243.778 10329EQUIV.                      998        YN            YN                 1                                                                                     Equivalente serie
  385   9017   2L.503934.66896.514317.544EQUIV.                      998                                         1                                                                                     Equivalente serie
  385      0   1G1.082714.059.900946.6785EQUIV.                      998        YN                               1                                                                                     Equivalente shunt
  384    385   1T2.906456.311 15322 45811EQUIV.                      998        YN            YN                 1                                                                                     Equivalente serie
  384   3010   1L45.332 2668918550.17693.EQUIV.                      998                                         1                                                                                     Equivalente serie
  384   4027   1T14.16839.556 15175 26434EQUIV.                      998        YN            YN                 1                                                                                     Equivalente serie
  384   4075   1L  1054 13325 23103 78814EQUIV.                      998                                         1                                                                                     Equivalente serie
  384   9017   1T3.698625.67968.613 16325EQUIV.                      998        YN            YN                 1                                                                                     Equivalente serie
  384      0   1G5.149636.709.072035.1526EQUIV.                      998        YN                               1                                                                                     Equivalente shunt
  380    385   1L20.914 21777122736211939EQUIV.                      998                                         1                                                                                     Equivalente serie
  380   3008   1T.793767.771155.935 10905EQUIV.                      998        YN            YN                 1                                                                                     Equivalente serie
  380   3010   1T  8247 7100149549.42608.EQUIV.                      998        YN            YN                 1                                                                                     Equivalente serie
  380   4027   1T81.355 22156 27592 81763EQUIV.                      998        YN            YN                 1                                                                                     Equivalente serie
  380   4075   1T.666549.387148.10293.584EQUIV.                      998        YN            YN                 1                                                                                     Equivalente serie
  380   7536   1T3.760657.322187572221943EQUIV.                      998        YN            YN                 1                                                                                     Equivalente serie
  380      0   1G.153033.62790.11341.8215EQUIV.                      998        YN                               1                                                                                     Equivalente shunt
  377    380   1T 28520 93657482680895361EQUIV.                      998        YN            YN                 1                                                                                     Equivalente serie
  377    384   1T74.073 16954 78043180062EQUIV.                      998        YN            YN                 1                                                                                     Equivalente serie
  377    385   1T39.744 12050 90075149775EQUIV.                      998        YN            YN                 1                                                                                     Equivalente serie
  377   3010   1T74.508 19216748536662953EQUIV.                      998        YN            YN                 1                                                                                     Equivalente serie
  377   4027   1L 16798 20233182650229647EQUIV.                      998                                         1                                                                                     Equivalente serie
  377   4075   1T80.531 24514113336206573EQUIV.                      998        YN            YN                 1                                                                                     Equivalente serie
  377   9017   1T 12522 24557355036499323EQUIV.                      998        YN            YN                 1                                                                                     Equivalente serie
  377      0   1G14.93346.7498.602735.663EQUIV.                      998        YN                               1                                                                                     Equivalente shunt
  353    377   1L46.03787.139 73261112440EQUIV.                      998                                         1                                                                                     Equivalente serie
  353    380   1T21.316 11072 13338 43251EQUIV.                      998        YN            YN                 1                                                                                     Equivalente serie
  353    384   1T  7897 18452195497299246EQUIV.                      998        YN            YN                 1                                                                                     Equivalente serie
  353    385   1T26.46486.337 63744 90931EQUIV.                      998        YN            YN                 1                                                                                     Equivalente serie
  353   3008   1T  7921 49337297239537124EQUIV.                      998        YN            YN                 1                                                                                     Equivalente serie
  353   3010   1T 22198 7041736038.25237.EQUIV.                      998        YN            YN                 1                                                                                     Equivalente serie
  353   4027   1L1.4633 3.492 3.98910.973EQUIV.                      998                                         1                                                                                     Equivalente serie
...
99999
DMUT
(BF1 CE BT1   N1 BF2    BT2   N2  RM    XM     %I1   %F1   %I2   %F2  IA SA
(----=-=====  ==-----  =====  ==------====== ------======------======--- ==
  325   4050   1  325   4050   2   279   457                         998
 4050    349   1 4050    349   2   169   265                         998
 4050    384   1 4050    378   10.73971.1008   0.62 32.23       98.15998
  378   9016   1 4050    384   1 1.3632.0282  10.09       37.23  94.6998
  384   9016   1  384   4050   10.07780.1158                      5.4998
  210   7820   1  360   7820   1 0.132 0.473  89.03       30.47      998
 3008   7820   1 3008   7820   2 2.511 2.815                         998
99999
DSHL
(BF  CE BT    NCTNG  Qpos  L  Rn    Xn  E Nome  NunNop               IA  SA                                     Nome Extendido
(====-=-----  ==-== ====== =------======-====== ===---               === ==                                     ====================
  320    390   1D10  -90.7               S5                          998
  320    390   1D20  -90.7               S6                          998
 3008    320   1D10   -136               EMPA                        998  1
  325   4050   1D10  -90.6                  S13                      998  1
  325   4050   1D20  -90.6                  S14                      998  1
  325   4050   2D10  -90.6                   S9                      998  1
  349   4050   2D10    -91               S12                         998  1
 4050    384   1D10   -100               S15                         998  1
  384   4050   1D10    -91               S3                          998  1
  210    320   1D10   -111               FCE                         998
  325   4050   2D20  -90.6                                           998  1
  349   4075   1D10    -91                                           998  1
  210   7536   1D10   -136                                           998
  320   7536   1D10  -73.5                                           998
 3008   7820   1D10   -225      32                                   998
 7820   3008   1D10   -225      32                                   998
 3008   7820   2D10   -225      32                                   998
 7820   3008   2D10   -225      32                                   998
99999
DARE
(NN  C                            NOME                
(--  =            ------------------------------------
998                   Barras sem Correspondência Curto
  1                                        RS - 525 kV
  2                                        RS - 230 kV
  3                                      RS - DIT/DIST
  4                 RS - DIT/DIST (Sul + Livramento 2)
  5                               RS - Consumidores RB
  6                         RS - Autoprodutores 230 kV
 51                                        SC - 525 kV
 52                                        SC - 230 kV
 53                                      SC - DIT/DIST
 54                               SC - Consumidores RB
101                                        PR - 525 kV
102                                        PR - 230 kV
103                                      PR - DIT/DIST
104                               PR - Consumidores RB
105                         PR - Autoprodutores 230 kV
201                                SP - 765 kV (SP+PR)
202                                        SP - 500 kV
203                                        SP - 440 kV
204                                        SP - 345 kV
205                                        SP - 230 kV
206                            SP - DIT/DIST (Litoral)
207                       SP - DIT/DIST (ATB/MOG/CAMP)
208                             SP - DIT/DIST (Araras)
209                              SP - DIT/DIST (Jupiá)
210                         SP - DIT/DIST (P.Prudente)
211                   SP - DIT/DIST (CERQ/Oeste/Salto)
212               SP - DIT/DIST (Região Metropolitana)
213                    SP - DIT/DIST (Vale do Paraíba)
214                        SP - DIT/DIST (C. Paulista)
216                               SP - Consumidores RB
251                                        RJ - 500 kV
252                                        RJ - 345 kV
253                                        RJ - 230 kV
254                      RJ - DIT/DIST (Metropolitana)
255                     RJ - DIT/DIST (Sul Fluminense)
256                 RJ - DIT/DIST (Baixada Fluminense)
259                   RJ - DIT/DIST (Norte Fluminense)
261                         RJ - Autoprodutores 500 kV
301                                        ES - 500 kV
302                                        ES - 345 kV
303                                        ES - 230 kV
304                     ES - DIT/DIST (Grande Vitória)
305                                ES - DIT/DIST (Sul)
306                              ES - DIT/DIST (Norte)
351                                        MG - 500 kV
352                                        MG - 345 kV
353                                        MG - 230 kV
354                      MG - DIT/DIST (Metropolitana)
355                        MG - DIT/DIST (Mantiqueira)
356                              MG - DIT/DIST (Norte)
357                              MG - DIT/DIST (Leste)
358                          MG - DIT/DIST (Triângulo)
359                                MG - DIT/DIST (Sul)
360                              MG - DIT/DIST (Oeste)
361                       MG - DIT/DIST (Padre Fialho)
362                               MG - Consumidores RB
401                                        MS - 440 kV
402                                        MS - 230 kV
403                                      MS - DIT/DIST
404                         MS - Autoprodutores 230 kV
431                                        AC - 230 kV
432                       AC - DIT/DIST (Rio Branco I)
451                                        RO - 500 kV
452                                        RO - 230 kV
453                              RO - DIT/DIST (Abunã)
454                  RO - DIT/DIST (Nova Mutum Paraná)
455                        RO - DIT/DIST (Porto Velho)
456                          RO - DIT/DIST (Ariquemes)
457                               RO - DIT/DIST (Jaru)
458                          RO - DIT/DIST (Ji-Paraná)
459                      RO - DIT/DIST (Pimenta Bueno)
460                            RO - DIT/DIST (Vilhena)
471                                        MT - 500 kV
472                                        MT - 230 kV
473                              MT - DIT/DIST (Sinop)
474                            MT - DIT/DIST (Sorriso)
475                 MT - DIT/DIST (Lucas do Rio Verde)
476                         MT - DIT/DIST (Dardanelos)
477                        MT - DIT/DIST (Anel Cuiabá)
478                     MT - DIT/DIST (Barra do Peixe)
479                            MT - DIT/DIST (Parecis)
480                               MT - Consumidores RB
511                                        GO - 500 kV
512                                        GO - 345 kV
513                                        GO - 230 kV
514                            GO - DIT/DIST (Corumbá)
515                            GO - DIT/DIST (Goiânia)
516                          GO - DIT/DIST (Paranaíba)
517                           GO - DIT/DIST (Sudoeste)
518                              GO - DIT/DIST (Norte)
519                               GO - Consumidores RB
520                         GO - Autoprodutores 230 kV
561                                        DF - 500 kV
562                                        DF - 345 kV
563                                        DF - 230 kV
564                           DF - DIT/DIST (Brasília)
581                        TO - Geração (Centro-Oeste)
701                                BA - 500 kV (Oeste)
702                                BA - 230 kV (Oeste)
703                              BA - DIT/DIST (Oeste)
711                                     BA/SE - 500 kV
712                                     BA/SE - 230 kV
713                          BA/SE - DIT/DIST (Sul NE)
714                       BA/SE - DIT/DIST (Centro NE)
716                      BA/SE - Autoprodutores 230 kV
721                                     AL/PE - 500 kV
722                                     AL/PE - 230 kV
723                        AL/PE - DIT/DIST (Leste NE)
741                                     PB/RN - 500 kV
742                                     PB/RN - 230 kV
743                        PB/RN - DIT/DIST (Leste NE)
761                                        CE - 500 kV
762                                        CE - 230 kV
763                                      CE - DIT/DIST
764                               CE - Consumidores RB
771                                        PI - 500 kV
772                                        PI - 230 kV
773                                      PI - DIT/DIST
801                      AM - 500 kV (Interligação PA)
802                                        AM - 230 kV
803                           AM - DIT/DIST (Mauá III)
804                             AM - DIT/DIST (Manaus)
805                        AM - DIT/DIST (J. Teixeira)
806                            AM - DIT/DIST (Radiais)
821                                        AP - 230 kV
822                                      AP - DIT/DIST
841                                        PA - 500 kV
842                          PA - 230 kV (Tramo Oeste)
843                                PA - 230 kV (Norte)
844                                  PA - 230 kV (Sul)
845                        PA - DIT/DIST (Tramo Oeste)
846                              PA - DIT/DIST (Norte)
847                                PA - DIT/DIST (Sul)
848                               PA - Consumidores RB
861                                        MA - 500 kV
862                         MA - 230 kV (Centro/Norte)
863                           MA - 230 kV (Imperatriz)
864                       MA - DIT/DIST (Centro/Norte)
865                         MA - DIT/DIST (Imperatriz)
866                               MA - Consumidores RB
881                                        TO - 500 kV
882                                        TO - 230 kV
883                                      TO - DIT/DIST
744                            PB/RN - Consumidores RB
704                       BA - Consumidores RB (Oeste)
241                                 PY - Sistema 50 Hz
260                               RJ - Consumidores RB
715                            BA/SE - Consumidores RB
724                            AL/PE - Consumidores RB
258                              RJ - DIT/DIST (Lagos)
215                       SP - Autoprodutores DIT/DIST
257                            RJ - DIT/DIST (Serrana)
363                       MG - Autoprodutores DIT/DIST
405                       MS - Autoprodutores DIT/DIST
481                       MT - Autoprodutores DIT/DIST
217                         SP - Autoprodutores 440 kV
240                              PR - 500 kV (Sudeste)
482                         MT - Autoprodutores 230 kV
521                       GO - Autoprodutores DIT/DIST
433                              AC - DIT/DIST (Feijó)
807                         AM - DIT/DIST (João Paulo)
808                       AM - Consumidores (DIT/DIST)
307                       ES - Autoprodutores DIT/DIST
901                                        RR - 500 kV
902                                        RR - 230 kV
903                                      RR - DIT/DIST
999               Área oriunda de algum bloco de dados
99999
